LAMMPS (15 Sep 2022)
# /home/carsten/Documents/PhD/LPS/MD_GAP/polarise/MD_GAP_CS.in (written by LAMMPScs 2.1 on Mon Jun 17 10:42:15 2019)

# ------------------------------ INITIALIZATION -------------------------------
units      metal
dimension  3
boundary   p p p
atom_style full
newton     on off
# ----------------------------- ATOM DEFINITION -------------------------------
read_data geom.data
Reading data file ...
  orthogonal box = (0 0 0) to (22.384999 22.384815 22.385185)
  reading atoms ...
  432 atoms
Finding 1-2 1-3 1-4 neighbors ...
     0 = max # of 1-2 neighbors
     0 = max # of 1-3 neighbors
     0 = max # of 1-4 neighbors
     1 = max # of special neighbors
timer timeout 24:00:00 every 100
New timer settings: style=normal  mode=nosync  timeout=00:00:00
# ------------------------------ ATOM GROUPING --------------------------------
group Li_atoms type 1
162 atoms in group Li_atoms
group P_atoms type 2
54 atoms in group P_atoms
group S_atoms type 3
216 atoms in group S_atoms

neighbor 2.0 bin
comm_modify vel yes

# ------------------------- GAP Potential ---------------------------

pair_style quip
pair_coeff      * * /u/thuss/templates/gaps/naps/gp_2b_soap.xml "IP GAP label=GAP_2023_2_8_0_13_56_52_159" 11 15 16

reset_timestep 0
# ------------------------ DEFINE COMPUTES --------------------------

compute thermo_press_lmp all pressure thermo_temp
compute ke_tech all ke
compute epot_tech all pe
compute vacf_p P_atoms vacf
compute vacf_s S_atoms vacf
compute msd_li Li_atoms msd com yes
variable etotal_tech equal c_ke_tech+c_epot_tech
variable temp_phys equal c_thermo_temp
variable ke_phys equal ke
variable etot_phys equal etotal
variable vol_v equal vol
variable T equal "500"

# ---------------------------------- TIMESTEP ------------------------------------
timestep 0.002

# ------------------------ RUNS ---------------------------
dump equiatoms all atom 500 geom.dump
dump_modify equiatoms scale no

thermo 100 # every 0.1
thermo_style custom step etotal pe ke temp press

fix therm_equ all nvt temp 300 600 1.0
run 50000
Step         TotEng         PotEng         KinEng          Temp          Press
0  -3569936.3     -3569936.3      0              0              38867.844
Averages over the last 251 of 501 rows, steps 25000 to 50000:
TotEng PotEng KinEng Temp Press
-3.57006e+06 -3.57009e+06 29.1249 522.784 -3884.97
Loop time of 4491.32 on 72 procs for 50000 steps with 432 atoms

unfix therm_equ

fix therm_equ2 all nvt temp 600 300 1.0
run 100000
Step         TotEng         PotEng         KinEng          Temp          Press
50000  -3570044.5     -3570077.3      32.762969      588.08668     -2178.0894
Averages over the last 501 of 1001 rows, steps 100000 to 150000:
TotEng PotEng KinEng Temp Press
-3.57007e+06 -3.5701e+06 21.0012 376.965 -5615.02
Loop time of 9094.94 on 72 procs for 100000 steps with 432 atoms

unfix therm_equ2

fix nvt_equ4 all nvt temp 300 300 1.0
run 50000
Step         TotEng         PotEng         KinEng          Temp          Press
150000  -3570085       -3570101.4      16.367847      293.79855     -8410.9788
Averages over the last 251 of 501 rows, steps 175000 to 200000:
TotEng PotEng KinEng Temp Press
-3.57008e+06 -3.5701e+06 16.8372 302.224 -6066.62
Loop time of 4482.05 on 72 procs for 50000 steps with 432 atoms

unfix nvt_equ4

fix npt_equ all npt temp 300 300 1.0 iso 1.0 1.0 1.0
run 50000
Step         TotEng         PotEng         KinEng          Temp          Press
200000  -3570085       -3570101.8      16.858148      302.59933     -4459.0026
Averages over the last 251 of 501 rows, steps 225000 to 250000:
TotEng PotEng KinEng Temp Press
-3.57009e+06 -3.5701e+06 16.7025 299.805 52.3614
Loop time of 4602.67 on 72 procs for 50000 steps with 432 atoms

unfix npt_equ

write_restart restart.equil
System init for write_restart ...
quit
