LAMMPS (15 Sep 2022)
# /home/carsten/Documents/PhD/LPS/MD_GAP/polarise/MD_GAP_CS.in (written by LAMMPScs 2.1 on Mon Jun 17 10:42:15 2019)

# ------------------------------ INITIALIZATION -------------------------------
units      metal
dimension  3
boundary   p p p
atom_style full
newton     on off
# ----------------------------- ATOM DEFINITION -------------------------------
read_data geom.data
Reading data file ...
  orthogonal box = (0 0 0) to (21.518679 21.525348 21.931303)
  reading atoms ...
  400 atoms
Finding 1-2 1-3 1-4 neighbors ...
     0 = max # of 1-2 neighbors
     0 = max # of 1-3 neighbors
     0 = max # of 1-4 neighbors
     1 = max # of special neighbors
timer timeout 24:00:00 every 100
New timer settings: style=normal  mode=nosync  timeout=00:00:00
# ------------------------------ ATOM GROUPING --------------------------------
group Li_atoms type 1
150 atoms in group Li_atoms
group P_atoms type 2
50 atoms in group P_atoms
group S_atoms type 3
200 atoms in group S_atoms

neighbor 2.0 bin
comm_modify vel yes

# ------------------------- GAP Potential ---------------------------

pair_style quip
pair_coeff      * * /u/thuss/templates/gaps/naps/gp_2b_soap.xml "IP GAP label=GAP_2023_2_8_0_13_56_52_159" 11 15 16

reset_timestep 0
# ------------------------ DEFINE COMPUTES --------------------------

compute thermo_press_lmp all pressure thermo_temp
compute ke_tech all ke
compute epot_tech all pe
compute vacf_p P_atoms vacf
compute vacf_s S_atoms vacf
compute msd_li Li_atoms msd com yes
variable etotal_tech equal c_ke_tech+c_epot_tech
variable temp_phys equal c_thermo_temp
variable ke_phys equal ke
variable etot_phys equal etotal
variable vol_v equal vol
variable T equal "500"

# ---------------------------------- TIMESTEP ------------------------------------
timestep 0.002

# ------------------------ RUNS ---------------------------
dump equiatoms all atom 500 geom.dump
dump_modify equiatoms scale no

thermo 100 # every 0.1
thermo_style custom step etotal pe ke temp press

fix therm_equ all nvt temp 300 600 1.0
run 50000
Step         TotEng         PotEng         KinEng          Temp          Press
0  -3305351.6     -3305351.6      0              0              93763.353
Averages over the last 251 of 501 rows, steps 25000 to 50000:
TotEng PotEng KinEng Temp Press
-3.30559e+06 -3.30562e+06 27.0306 524.105 -3792.51
Loop time of 4284.58 on 72 procs for 50000 steps with 400 atoms

unfix therm_equ

fix therm_equ2 all nvt temp 600 300 1.0
run 100000
Step         TotEng         PotEng         KinEng          Temp          Press
50000  -3305584.5     -3305613.9      29.44361       570.89144     -1447.4238
Averages over the last 501 of 1001 rows, steps 100000 to 150000:
TotEng PotEng KinEng Temp Press
-3.30562e+06 -3.30564e+06 19.433 376.793 -4841.36
Loop time of 8614.81 on 72 procs for 100000 steps with 400 atoms

unfix therm_equ2

fix nvt_equ4 all nvt temp 300 300 1.0
run 50000
Step         TotEng         PotEng         KinEng          Temp          Press
150000  -3305624.9     -3305640.8      15.913775      308.5572      -5760.4564
Averages over the last 251 of 501 rows, steps 175000 to 200000:
TotEng PotEng KinEng Temp Press
-3.30562e+06 -3.30564e+06 15.5389 301.288 -5487.75
Loop time of 4294.56 on 72 procs for 50000 steps with 400 atoms

unfix nvt_equ4

fix npt_equ all npt temp 300 300 1.0 iso 1.0 1.0 1.0
run 50000
Step         TotEng         PotEng         KinEng          Temp          Press
200000  -3305623.8     -3305639.8      15.976299      309.76949     -6044.2257
Averages over the last 251 of 501 rows, steps 225000 to 250000:
TotEng PotEng KinEng Temp Press
-3.30563e+06 -3.30564e+06 15.4531 299.624 46.6151
Loop time of 4371.88 on 72 procs for 50000 steps with 400 atoms

unfix npt_equ

write_restart restart.equil
System init for write_restart ...
quit
