LAMMPS (15 Sep 2022)
# /home/carsten/Documents/PhD/LPS/MD_GAP/polarise/MD_GAP_CS.in (written by LAMMPScs 2.1 on Mon Jun 17 10:42:15 2019)

# ------------------------------ INITIALIZATION -------------------------------
units      metal
dimension  3
boundary   p p p
atom_style full
newton     on off
# ----------------------------- ATOM DEFINITION -------------------------------
read_data geom.data
Reading data file ...
  orthogonal box = (0 0 0) to (21.734239 21.737162 22.149205)
  reading atoms ...
  400 atoms
Finding 1-2 1-3 1-4 neighbors ...
     0 = max # of 1-2 neighbors
     0 = max # of 1-3 neighbors
     0 = max # of 1-4 neighbors
     1 = max # of special neighbors
timer timeout 24:00:00 every 100
New timer settings: style=normal  mode=nosync  timeout=00:00:00
# ------------------------------ ATOM GROUPING --------------------------------
group Li_atoms type 1
150 atoms in group Li_atoms
group P_atoms type 2
50 atoms in group P_atoms
group S_atoms type 3
200 atoms in group S_atoms

neighbor 2.0 bin
comm_modify vel yes

# ------------------------- GAP Potential ---------------------------

pair_style quip
pair_coeff      * * /u/thuss/templates/gaps/naps/gp_2b_soap.xml "IP GAP label=GAP_2023_2_8_0_13_56_52_159" 11 15 16

reset_timestep 0
# ------------------------ DEFINE COMPUTES --------------------------

compute thermo_press_lmp all pressure thermo_temp
compute ke_tech all ke
compute epot_tech all pe
compute vacf_p P_atoms vacf
compute vacf_s S_atoms vacf
compute msd_li Li_atoms msd com yes
variable etotal_tech equal c_ke_tech+c_epot_tech
variable temp_phys equal c_thermo_temp
variable ke_phys equal ke
variable etot_phys equal etotal
variable vol_v equal vol
variable T equal "500"

# ---------------------------------- TIMESTEP ------------------------------------
timestep 0.002

# ------------------------ RUNS ---------------------------
dump equiatoms all atom 500 geom.dump
dump_modify equiatoms scale no

thermo 100 # every 0.1
thermo_style custom step etotal pe ke temp press

fix therm_equ all nvt temp 300 600 1.0
run 50000
Step         TotEng         PotEng         KinEng          Temp          Press
0  -3305352.6     -3305352.6      0              0              71094.273
Averages over the last 251 of 501 rows, steps 25000 to 50000:
TotEng PotEng KinEng Temp Press
-3.3056e+06 -3.30563e+06 27.025 523.995 -3776.84
Loop time of 4300.27 on 72 procs for 50000 steps with 400 atoms

unfix therm_equ

fix therm_equ2 all nvt temp 600 300 1.0
run 100000
Step         TotEng         PotEng         KinEng          Temp          Press
50000  -3305588.3     -3305620.8      32.535912      630.84905      991.40154
Averages over the last 501 of 1001 rows, steps 100000 to 150000:
TotEng PotEng KinEng Temp Press
-3.30562e+06 -3.30564e+06 19.4231 376.6 -4187.06
Loop time of 8659.73 on 72 procs for 100000 steps with 400 atoms

unfix therm_equ2

fix nvt_equ4 all nvt temp 300 300 1.0
run 50000
Step         TotEng         PotEng         KinEng          Temp          Press
150000  -3305627.3     -3305643.6      16.267154      315.40897     -4499.0331
Averages over the last 251 of 501 rows, steps 175000 to 200000:
TotEng PotEng KinEng Temp Press
-3.30563e+06 -3.30564e+06 15.3031 296.717 -4204.29
Loop time of 4319.47 on 72 procs for 50000 steps with 400 atoms

unfix nvt_equ4

fix npt_equ all npt temp 300 300 1.0 iso 1.0 1.0 1.0
run 50000
Step         TotEng         PotEng         KinEng          Temp          Press
200000  -3305628.4     -3305644.5      16.123192      312.61765     -6446.255
Averages over the last 251 of 501 rows, steps 225000 to 250000:
TotEng PotEng KinEng Temp Press
-3.30563e+06 -3.30564e+06 15.3891 298.385 5.57262
Loop time of 4353.98 on 72 procs for 50000 steps with 400 atoms

unfix npt_equ

write_restart restart.equil
System init for write_restart ...
quit
